%chk=1191-95-3.chk
%mem=2GB
%nprocshared=2
# opt freq b3lyp/aug-cc-pvtz EmpiricalDispersion=GD3 geom=connectivity

Title Card Required

0 1
 C                 -1.77548800   -0.64373400   -0.04830100
 C                 -1.78260900    0.90486100   -0.19216600
 C                 -0.28962800    0.95914400    0.23534200
 C                 -0.26105300   -0.55629200    0.09613600
 H                 -2.23701600   -0.99357700    0.87404100
 H                 -2.13949900   -1.24594100   -0.87645300
 H                 -2.47839100    1.43366300    0.44935900
 H                 -1.93066000    1.22290900   -1.21920400
 H                 -0.14619200    1.25575900    1.27358800
 H                  0.42830300    1.49635700   -0.37638600
 O                  0.62330200   -1.36910800    0.02670500
 O                  2.80939400    0.48012600   -0.02746100
 H                  2.24197700   -0.29956100    0.03566400
 H                  3.45258300    0.25837200   -0.70063000

 1 2 1.0 4 1.0 5 1.0 6 1.0
 2 3 1.0 7 1.0 8 1.0
 3 4 1.0 9 1.0 10 1.0
 4 11 2.0
 5
 6
 7
 8
 9
 10
 11
 12 13 1.0 14 1.0
 13
 14

