%chk=132-64-9.chk
%mem=8GB
%nprocshared=8
# opt freq b3lyp/aug-cc-pvtz EmpiricalDispersion=GD3 geom=connectivity

Title Card Required

0 1
 C                 -2.52332800   -2.14034700    0.02623500
 C                 -3.15205700   -0.89238300   -0.04317400
 C                 -2.42048900    0.28831100   -0.08721900
 C                 -1.04588400    0.15462300   -0.05730700
 C                 -0.38569200   -1.07591400    0.01014700
 C                 -1.14065700   -2.24573600    0.05360300
 H                 -3.12694900   -3.03411400    0.05812200
 H                 -4.22981500   -0.84354700   -0.06460100
 H                 -2.88247600    1.26133900   -0.14069300
 H                 -0.66190400   -3.21182200    0.10610300
 C                  1.09910700    0.63461900   -0.05095100
 C                  2.28924400    1.33464500   -0.06972900
 C                  3.45438200    0.57901500   -0.01797000
 C                  3.41375400   -0.81735100    0.04903600
 C                  2.20546800   -1.49862700    0.06587800
 C                  1.02536500   -0.76087400    0.01492900
 H                  2.30784900    2.41145300   -0.12328000
 H                  4.40919400    1.08144000   -0.03072500
 H                  4.33917500   -1.37065900    0.08744500
 H                  2.18142800   -2.57664400    0.11665400
 O                 -0.15139500    1.20194400   -0.09495400
 O                 -1.87387000    3.58289800    0.05924800
 H                 -1.91021900    3.66131100    1.01345600
 H                 -1.13944600    2.98262300   -0.09769200

 1 2 1.5 6 1.5 7 1.0
 2 3 1.5 8 1.0
 3 4 2.0 9 1.0
 4 5 1.5 21 1.0
 5 6 1.5 16 1.5
 6 10 1.0
 7
 8
 9
 10
 11 12 2.0 16 1.5 21 1.0
 12 13 1.5 17 1.0
 13 14 1.5 18 1.0
 14 15 1.5 19 1.0
 15 16 1.5 20 1.0
 16
 17
 18
 19
 20
 21
 22 23 1.0 24 1.0
 23
 24

