%chk=2406-25-9.chk
%mem=4GB
%nprocshared=8
# opt freq b3lyp/aug-cc-pvtz EmpiricalDispersion=GD3 geom=connectivity

Title Card Required

0 2
 O                  0.06394400   -1.01849400    0.20998700
 N                 -0.71027000   -0.04988100   -0.10229200
 C                 -2.13635700   -0.31243000   -0.10630600
 H                 -2.63861900    0.40951700   -0.74463100
 H                 -2.28934700   -1.31838600   -0.47935000
 H                 -2.53969300   -0.23651800    0.90605500
 C                 -0.24745900    1.31366500    0.09736900
 H                  0.81816700    1.34323700   -0.09986800
 H                 -0.78216400    1.97660400   -0.57754800
 H                 -0.43852600    1.62541900    1.12719000
 O                  2.69740400   -0.07350500   -0.20140000
 H                  1.86818900   -0.55169800   -0.04699100
 H                  3.18599600   -0.17042800    0.61611700

 1 2 1.0
 2 3 1.0 7 1.0
 3 4 1.0 5 1.0 6 1.0
 4
 5
 6
 7 8 1.0 9 1.0 10 1.0
 8
 9
 10
 11 12 1.0 13 1.0
 12
 13

