%chk=288-32-4.chk
%mem=2GB
%nprocshared=2
# opt freq b3lyp/aug-cc-pvtz EmpiricalDispersion=GD3 geom=connectivity

Title Card Required

0 1
 C                  0.96698400    1.15704200   -0.00042800
 C                 -0.01209200   -0.74848400    0.00134000
 C                  1.96376700    0.22383700    0.00500700
 H                  1.06078300    2.22655600   -0.00370500
 H                 -0.76037900   -1.51950400   -0.00542200
 H                  3.03283300    0.30758800    0.00800500
 N                  1.32107700   -0.99081200    0.00600200
 H                  1.75774600   -1.89299900    0.00513900
 N                 -0.26005100    0.54079400   -0.00201300
 O                 -3.05657900   -0.03850300   -0.09276400
 H                 -3.36611700    0.10659500    0.80144600
 H                 -2.21137100    0.43554900   -0.12678300

 1 3 2.0 4 1.0 9 1.5
 2 5 1.0 7 1.5 9 2.0
 3 6 1.0 7 1.5
 4
 5
 6
 7 8 1.0
 8
 9
 10 11 1.0 12 1.0
 11
 12

