%chk=67-64-1.chk
%mem=2GB
%nprocshared=2
# opt freq b3lyp/aug-cc-pvtz EmpiricalDispersion=GD3 geom=connectivity

Title Card Required

0 1
 C                 -0.72214300   -0.09196800   -0.00946700
 O                  0.05497300   -1.02609500   -0.05344200
 C                 -0.25924500    1.34008500   -0.00652500
 H                 -0.56057400    1.80740500   -0.94477500
 H                 -0.75249000    1.89178300    0.79273500
 H                  0.81911000    1.39324600    0.09673400
 C                 -2.20943600   -0.32182700    0.03864300
 H                 -2.70523100    0.25533100   -0.74074800
 H                 -2.43012600   -1.37724100   -0.07636000
 H                 -2.59861900    0.03329900    0.99299700
 O                  2.73595300   -0.05597800   -0.05890100
 H                  1.89717700   -0.53646000   -0.10427300
 H                  3.14828700   -0.36851900    0.74652400

 1 2 2.0 3 1.0 7 1.0
 2
 3 4 1.0 5 1.0 6 1.0
 4
 5
 6
 7 8 1.0 9 1.0 10 1.0
 8
 9
 10
 11 12 1.0 13 1.0
 12
 13

