%chk=98-86-2.chk
%mem=5GB
%nprocshared=4
# opt freq b3lyp/aug-cc-pvtz EmpiricalDispersion=GD3 geom=connectivity

Title Card Required

0 1
 C                  2.65688300    1.06939800    0.00864600
 C                  1.27298300    1.17860200    0.00514600
 C                  0.47609000    0.03300000   -0.00054300
 C                  1.08511500   -1.22414700   -0.00311600
 C                  2.46550200   -1.33218800    0.00078400
 C                  3.25380200   -0.18493000    0.00676400
 H                  3.26698500    1.95943700    0.01256600
 H                  0.81824400    2.15622400    0.00587500
 H                  0.45556300   -2.09967800   -0.00908700
 H                  2.93011900   -2.30620700   -0.00143000
 H                  4.32993200   -0.26958600    0.00944400
 C                 -1.01132500    0.10714000   -0.00604300
 O                 -1.67510900   -0.91777500   -0.01471600
 C                 -1.67156000    1.46133100   -0.00470000
 H                 -1.35038900    2.03513000    0.86349100
 H                 -1.37322500    2.02173400   -0.88984800
 H                 -2.74876700    1.33872300    0.00766500
 O                 -4.46684600   -0.35492900   -0.07652000
 H                 -3.56283900   -0.69975400   -0.09829200
 H                 -4.79492600   -0.60363100    0.78787100

 1 2 1.5 6 1.5 7 1.0
 2 3 1.5 8 1.0
 3 4 1.5 12 1.0
 4 5 2.0 9 1.0
 5 6 1.5 10 1.0
 6 11 1.0
 7
 8
 9
 10
 11
 12 13 2.0 14 1.0
 13
 14 15 1.0 16 1.0 17 1.0
 15
 16
 17
 18 19 1.0 20 1.0
 19
 20

