%chk=110-01-0.chk
%mem=4GB
%nprocshared=5
# opt freq b3lyp/aug-cc-pvtz geom=connectivity empiricaldispersion=gd3

Title Card Required

0 1
 C                 -0.51791381   -0.45521207   -0.00755010
 C                  0.85330049   -0.43073126    0.01364519
 C                  1.43408623    1.04228765   -0.01350230
 C                  0.44856862    1.99599650    0.00821593
 S                 -1.10253086    1.19143452    0.00056987
 H                 -0.88326474   -0.96574597   -0.87402216
 H                  1.21087378   -0.94907522   -0.85143335
 H                  2.04952866    1.17698446    0.85136034
 H                  0.53028939    2.61836200    0.87475093
 H                 -0.90665319   -0.97308609    0.84426455
 H                  1.19612111   -0.92190816    0.90027887
 H                  2.01953218    1.16746139   -0.90034195
 H                  0.51754404    2.63994919   -0.84352776
 O                  0.14022942    1.07194759    2.41849665
 H                  0.17767090    1.45146854    3.29949722
 H                 -0.69816903    1.29640579    2.00824480

 1 2 1.0 5 1.0 6 1.0 10 1.0
 2 3 1.0 7 1.0 11 1.0
 3 4 1.0 8 1.0 12 1.0
 4 5 1.0 9 1.0 13 1.0
 5
 6
 7
 8
 9
 10
 11
 12
 13
 14 15 1.0 16 1.0
 15
 16

