%chk=125132-75-4.chk
%mem=8GB
%nprocshared=8
# opt freq b3lyp/aug-cc-pvtz EmpiricalDispersion=GD3 geom=connectivity

Title Card Required

0 1
 C                 -2.59214869    1.82045117   -1.95674606
 C                 -1.77530236    0.55991063   -1.61704084
 C                 -1.35682146    0.60318326   -0.13562219
 C                 -2.61440431    0.65453426    0.75176074
 C                 -3.43125064    1.91507479    0.41205552
 C                 -3.84973153    1.87180217   -1.06936313
 H                 -2.37229107   -0.31030658   -1.79375100
 H                 -0.90152727    0.52423169   -2.23359912
 H                 -1.99515998    2.69066838   -1.78003591
 H                 -2.88291139    1.79038512   -2.98604344
 H                 -3.21139302   -0.21568296    0.57505059
 H                 -4.30502573    1.95075373    1.02861380
 H                 -2.83426192    2.78529200    0.58876568
 H                 -4.44672024    1.00158495   -1.24607328
 H                 -4.41728061    2.74763228   -1.30539208
 C                 -0.49760406    1.85564541    0.11870831
 C                  0.29829077    2.37985030   -0.90875586
 C                 -0.51161106    2.47118109    1.37761322
 C                  1.08017858    3.51959088   -0.67731512
 H                  0.30898557    1.90987504   -1.86995764
 C                  0.27027377    3.61092395    1.60905282
 H                 -1.11929424    2.07093888    2.16210499
 C                  1.06616869    4.13512877    0.58158869
 H                  1.68786276    3.91983233   -1.46180649
 H                  0.25957621    4.08090132    2.57025355
 H                  1.66315464    5.00534809    0.75829778
 O                 -0.59832130   -0.56731867    0.17981837
 H                  0.27687912   -0.31088833    0.47959781
 O                 -2.22581491    0.69471598    2.12736378
 H                 -1.35835735    0.29575452    2.22709909
 O                  1.87506397    0.83039490    1.17677620
 H                  2.71045249    0.47744609    1.49166215
 H                  1.91955807    1.78914676    1.15640078

 1 2 1.0 6 1.0 10 1.0 9 1.0
 2 3 1.0 7 1.0 8 1.0
 3 4 1.0 16 1.0 27 1.0
 4 5 1.0 11 1.0 29 1.0
 5 6 1.0 12 1.0 13 1.0
 6 15 1.0 14 1.0
 7
 8
 9
 10
 11
 12
 13
 14
 15
 16 17 1.5 18 1.5
 17 19 1.5 20 1.0
 18 21 1.5 22 1.0
 19 23 1.5 24 1.0
 20
 21 23 1.5 25 1.0
 22
 23 26 1.0
 24
 25
 26
 27 28 1.0
 28
 29 30 1.0
 30
 31 32 1.0 33 1.0
 32
 33

