%chk=502-49-8.chk
%mem=8GB
%nprocshared=8
# opt freq b3lyp/aug-cc-pvtz EmpiricalDispersion=GD3 geom=connectivity

Title Card Required

0 1
 C                 -0.60304577    1.45358096    0.12140653
 C                  0.95812771    1.30463114    0.11152947
 C                  0.09997895    4.65198828   -0.36917325
 C                  1.95688433    2.21942666    0.87276981
 C                  1.55378200    4.73613207    0.05484466
 C                  2.40773616    3.46842878    0.05090677
 H                 -0.96257447    1.16383327    1.08664504
 H                  1.28285830    1.35650458   -0.90668425
 H                  1.59276841    2.48293647    1.84379101
 H                  1.54906121    5.11426484    1.05579087
 H                 -0.89986730    0.75596157   -0.63365914
 H                  1.09240953    0.32453710    0.51930891
 H                  2.84657865    1.63145900    0.96016570
 H                  2.03899978    5.42186834   -0.60789924
 H                  3.34093711    3.78792509    0.46558507
 H                  2.53166744    3.13394862   -0.95788659
 C                 -1.35448352    2.76804452   -0.19039301
 H                 -1.45233742    3.37837307    0.68300477
 H                 -2.31414094    2.43598721   -0.52758078
 C                 -0.71640752    3.67577736   -1.21911217
 H                 -0.17970489    3.13382432   -1.96953684
 H                 -1.47140205    4.26500880   -1.69628046
 O                 -0.59488767    5.59630247    0.08799372
 O                  1.02566684    6.96499093    1.36597203
 H                  1.24341829    7.89778084    1.42990397
 H                  0.15648445    6.86565168    0.97068264

 1 2 1.0 7 1.0 11 1.0 17 1.0
 2 4 1.0 8 1.0 12 1.0
 3 5 1.0 20 1.0 23 2.0
 4 6 1.0 9 1.0 13 1.0
 5 6 1.0 10 1.0 14 1.0
 6 15 1.0 16 1.0
 7
 8
 9
 10
 11
 12
 13
 14
 15
 16
 17 18 1.0 19 1.0 20 1.0
 18
 19
 20 21 1.0 22 1.0
 21
 22
 23
 24 25 1.0 26 1.0
 25
 26

